version 2
run Tictoc16-1-20120607-16:37:30-2704
attr configname Tictoc16
attr datetime 20120607-16:37:30
attr experiment Tictoc16
attr inifile omnetpp.ini
attr iterationvars ""
attr iterationvars2 $repetition=1
attr measurement ""
attr network Tictoc16
attr processid 2704
attr repetition 1
attr replication #1
attr resultdir results
attr runnumber 1
attr seedset 1

statistic Tictoc16.tic[0] 	hopCount:stats
field count 62174
field mean 12.529417441374
field stddev 12.121672108516
field sum 779004
field sqrsum 18895852
field min 1
field max 136
attr interpolationmode  none
attr source  arrival
attr title  "hop count, stats"
statistic Tictoc16.tic[1] 	hopCount:stats
field count 62272
field mean 3.7993961973279
field stddev 4.4412738035362
field sum 236596
field sqrsum 2127212
field min 1
field max 60
attr interpolationmode  none
attr source  arrival
attr title  "hop count, stats"
statistic Tictoc16.tic[1] 	hopCount:histogram
field count 62272
field mean 3.7993961973279
field stddev 4.4412738035362
field sum 236596
field sqrsum 2127212
field min 1
field max 60
attr interpolationmode  none
attr source  arrival
attr title  "hop count, histogram"
bin	-INF	0
bin	-7	0
bin	-6	0
bin	-5	0
bin	-4	0
bin	-3	0
bin	-2	0
bin	-1	0
bin	0	0
bin	1	29074
bin	2	8326
bin	3	2728
bin	4	5538
bin	5	1873
bin	6	3618
bin	7	1275
bin	8	2502
bin	9	796
bin	10	1586
bin	11	578
bin	12	1072
bin	13	346
bin	14	743
bin	15	257
bin	16	478
bin	17	177
bin	18	345
bin	19	120
bin	20	204
bin	21	84
bin	22	138
bin	23	44
bin	24	370
statistic Tictoc16.tic[2] 	hopCount:stats
field count 62018
field mean 12.612934954368
field stddev 12.215412545301
field sum 782229
field sqrsum 19120151
field min 1
field max 173
attr interpolationmode  none
attr source  arrival
attr title  "hop count, stats"
statistic Tictoc16.tic[3] 	hopCount:stats
field count 61911
field mean 12.626479947021
field stddev 12.265072510804
field sum 781718
field sqrsum 19183592
field min 1
field max 131
attr interpolationmode  none
attr source  arrival
attr title  "hop count, stats"
statistic Tictoc16.tic[4] 	hopCount:stats
field count 62292
field mean 3.8021736338535
field stddev 4.4528664778413
field sum 236845
field sqrsum 2135633
field min 1
field max 65
attr interpolationmode  none
attr source  arrival
attr title  "hop count, stats"
statistic Tictoc16.tic[5] 	hopCount:stats
field count 62160
field mean 12.606048906049
field stddev 12.225773456165
field sum 783592
field sqrsum 19168876
field min 1
field max 138
attr interpolationmode  none
attr source  arrival
attr title  "hop count, stats"
