version 2
run Tictoc16-0-20120607-16:37:24-2704
attr configname Tictoc16
attr datetime 20120607-16:37:24
attr experiment Tictoc16
attr inifile omnetpp.ini
attr iterationvars ""
attr iterationvars2 $repetition=0
attr measurement ""
attr network Tictoc16
attr processid 2704
attr repetition 0
attr replication #0
attr resultdir results
attr runnumber 0
attr seedset 0

statistic Tictoc16.tic[0] 	hopCount:stats
field count 61776
field mean 12.661907536908
field stddev 12.348204902704
field sum 782202
field sqrsum 19323508
field min 1
field max 173
attr interpolationmode  none
attr source  arrival
attr title  "hop count, stats"
statistic Tictoc16.tic[1] 	hopCount:stats
field count 61993
field mean 3.7817979449293
field stddev 4.4090539158764
field sum 234445
field sqrsum 2091733
field min 1
field max 48
attr interpolationmode  none
attr source  arrival
attr title  "hop count, stats"
statistic Tictoc16.tic[1] 	hopCount:histogram
field count 61993
field mean 3.7817979449293
field stddev 4.4090539158764
field sum 234445
field sqrsum 2091733
field min 1
field max 48
attr interpolationmode  none
attr source  arrival
attr title  "hop count, histogram"
bin	-INF	0
bin	-18	0
bin	-17	0
bin	-16	0
bin	-15	0
bin	-14	0
bin	-13	0
bin	-12	0
bin	-11	0
bin	-10	0
bin	-9	0
bin	-8	0
bin	-7	0
bin	-6	0
bin	-5	0
bin	-4	0
bin	-3	0
bin	-2	0
bin	-1	0
bin	0	0
bin	1	29115
bin	2	8195
bin	3	2764
bin	4	5394
bin	5	1872
bin	6	3699
bin	7	1180
bin	8	2472
bin	9	834
bin	10	1571
bin	11	571
bin	12	1056
bin	13	364
bin	14	747
bin	15	244
bin	16	498
bin	17	151
bin	18	314
bin	19	104
bin	20	218
bin	21	77
bin	22	145
bin	23	38
bin	24	111
bin	25	32
bin	26	57
bin	27	28
bin	28	37
bin	29	10
bin	30	25
bin	31	6
bin	32	19
bin	33	10
bin	34	7
bin	35	1
bin	36	7
bin	37	2
bin	38	5
bin	39	1
bin	40	2
bin	41	0
bin	42	2
bin	43	1
bin	44	2
bin	45	0
bin	46	3
bin	47	0
bin	48	2
bin	49	0
bin	50	0
bin	51	0
bin	52	0
bin	53	0
bin	54	0
bin	55	0
bin	56	0
bin	57	0
bin	58	0
statistic Tictoc16.tic[2] 	hopCount:stats
field count 62424
field mean 12.555539536076
field stddev 12.17534285046
field sum 783767
field sqrsum 19094139
field min 1
field max 177
attr interpolationmode  none
attr source  arrival
attr title  "hop count, stats"
statistic Tictoc16.tic[3] 	hopCount:stats
field count 62205
field mean 12.67261474158
field stddev 12.297301160498
field sum 788300
field sqrsum 19396536
field min 1
field max 141
attr interpolationmode  none
attr source  arrival
attr title  "hop count, stats"
statistic Tictoc16.tic[4] 	hopCount:stats
field count 62210
field mean 3.8269410062691
field stddev 4.4448334073313
field sum 238074
field sqrsum 2140130
field min 1
field max 52
attr interpolationmode  none
attr source  arrival
attr title  "hop count, stats"
statistic Tictoc16.tic[5] 	hopCount:stats
field count 61520
field mean 12.568416775033
field stddev 12.166265295694
field sum 773209
field sqrsum 18823933
field min 1
field max 148
attr interpolationmode  none
attr source  arrival
attr title  "hop count, stats"
